Version 4
SHEET 1 1780 680
WIRE 1168 -96 1040 -96
WIRE 1040 -48 1040 -96
WIRE 1168 16 1168 -96
WIRE 1168 48 1168 16
WIRE 1040 96 1040 32
WIRE 1072 96 1040 96
WIRE 1104 96 1072 96
WIRE 1168 176 1168 144
FLAG 1168 176 0
FLAG 1072 96 B
FLAG 1168 16 C
FLAG 928 -48 C
FLAG 928 32 0
SYMBOL npn 1104 48 R0
SYMATTR InstName Q1
SYMATTR Value 2N3904
SYMBOL current 1040 -48 R0
SYMATTR InstName I1
SYMATTR Value 0
SYMBOL voltage 928 -64 R0
SYMATTR InstName V1
SYMATTR Value 10
TEXT 800 144 Left 2 !.op\n.dc V1 0 10 50m I1 2u 10u 2u\n.plot Ic(Q1)\n.meas DC Ic FIND Ic(Q1) WHEN V1 = 5
