Version 4
SHEET 1 880 680
WIRE 96 224 16 224
WIRE 144 224 112 224
WIRE 240 224 192 224
WIRE 288 224 256 224
WIRE 416 224 336 224
WIRE 416 336 416 224
WIRE 16 432 16 224
WIRE 192 432 16 432
WIRE 240 432 208 432
WIRE 416 432 416 336
WIRE 416 432 288 432
WIRE 16 464 16 432
FLAG 512 272 Vdd
FLAG 640 272 G
FLAG 512 352 0
FLAG 640 352 0
FLAG 16 464 0
FLAG 112 176 G
FLAG 256 176 G
FLAG 208 384 G
FLAG 416 336 Vdd
SYMBOL nmos4 192 176 R90
SYMATTR InstName M1
SYMBOL nmos4 336 176 R90
SYMATTR InstName M2
SYMBOL nmos4 288 384 R90
SYMATTR InstName M3
SYMATTR Value2 l=0.36 w=0.18
SYMBOL voltage 512 256 R0
SYMATTR InstName V1
SYMATTR Value 2.5
SYMBOL voltage 640 256 R0
SYMATTR InstName V2
SYMATTR Value 1.414
TEXT 464 160 Left 2 !.op
