.model D1N914 D(Is=.015p N=1 Rs=1 Ikf=0 Xti=3 Eg=1.11 Cjo=4p M=.3333
+ Vj=.75 Fc=.5 Isr=100p Nr=2 Bv=9.25 Ibv=100u Tt=11.54n) 
