Version 4
SHEET 1 1048 680
WIRE 432 128 336 128
WIRE 176 144 -32 144
WIRE 224 144 176 144
WIRE 240 144 224 144
WIRE 384 144 240 144
WIRE 608 144 544 144
WIRE 672 144 608 144
WIRE 704 144 672 144
WIRE 240 160 240 144
WIRE 432 160 432 128
WIRE 384 176 384 144
WIRE 608 192 608 144
WIRE -32 240 -32 144
WIRE 240 272 240 240
WIRE 384 272 384 224
WIRE 384 272 240 272
WIRE 432 272 432 240
WIRE 544 272 544 144
WIRE 544 272 432 272
WIRE 240 320 240 272
WIRE 336 320 336 128
WIRE 336 320 240 320
WIRE 384 320 336 320
WIRE 480 320 384 320
WIRE 608 320 608 272
WIRE 608 320 480 320
WIRE 176 352 176 144
WIRE 384 352 384 320
WIRE 704 352 704 144
WIRE -32 464 -32 320
WIRE 176 464 176 432
WIRE 176 464 -32 464
WIRE 240 464 176 464
WIRE 384 464 384 432
WIRE 384 464 240 464
WIRE 704 464 704 432
WIRE 704 464 384 464
WIRE 240 496 240 464
FLAG 240 496 0
FLAG 672 144 Vout
FLAG 480 320 Ve
FLAG 224 144 Vin
SYMBOL res 160 336 R0
SYMATTR InstName R1
SYMATTR Value {Rb}
SYMBOL res 224 144 R0
SYMATTR InstName R2
SYMATTR Value {rpi}
SYMBOL res 368 336 R0
SYMATTR InstName R3
SYMATTR Value {Re}
SYMBOL res 592 176 R0
SYMATTR InstName R4
SYMATTR Value {ro}
SYMBOL res 688 336 R0
SYMATTR InstName R5
SYMATTR Value {Rc}
SYMBOL g 432 144 R0
SYMATTR InstName G1
SYMATTR Value {gm}
SYMBOL voltage -32 224 R0
SYMATTR InstName V1
SYMATTR Value 1m
TEXT -16 512 Left 2 !.op\n.param Rb=10k Re=1600 Rc=1600 gm=1 rpi=40 ro=200\n.tran 1u 100.1m 100m
