Version 4
SHEET 1 880 680
WIRE 176 80 80 80
WIRE 272 80 176 80
WIRE 80 112 80 80
WIRE 272 112 272 80
WIRE 272 208 272 192
WIRE 352 208 272 208
WIRE 448 208 416 208
WIRE 464 208 448 208
WIRE 272 224 272 208
WIRE -112 272 -176 272
WIRE -48 272 -112 272
WIRE 80 272 80 192
WIRE 80 272 16 272
WIRE 192 272 80 272
WIRE 208 272 192 272
WIRE 464 272 464 208
WIRE -176 304 -176 272
WIRE 272 336 272 320
WIRE 80 352 80 272
WIRE 272 352 272 336
WIRE 80 464 80 432
WIRE 176 464 80 464
WIRE 272 464 272 432
WIRE 272 464 176 464
WIRE 464 464 464 352
WIRE 464 464 272 464
FLAG -80 176 0
FLAG -80 96 Vcc
FLAG 176 80 Vcc
FLAG 176 464 0
FLAG 192 272 B
FLAG 272 336 E
FLAG 272 208 C
FLAG -176 384 0
FLAG 448 208 out
FLAG -112 272 in
SYMBOL voltage -80 80 R0
SYMATTR InstName V1
SYMATTR Value 15
SYMBOL Res 64 96 R0
SYMATTR InstName R1
SYMATTR Value 3700
SYMBOL Res 64 336 R0
SYMATTR InstName R2
SYMATTR Value 2000
SYMBOL Res 256 96 R0
SYMATTR InstName R3
SYMATTR Value 2800
SYMBOL Res 256 336 R0
SYMATTR InstName R4
SYMATTR Value 690
SYMBOL npn 208 224 R0
SYMATTR InstName Q1
SYMATTR Value 2N3904
SYMBOL Cap -48 288 R270
WINDOW 0 32 32 VTop 2
WINDOW 3 0 32 VBottom 2
SYMATTR InstName C1
SYMATTR Value 10µ
SYMBOL voltage -176 288 R0
SYMATTR InstName V2
SYMATTR Value SINE(0 10m 2000)
SYMBOL Cap 352 224 R270
WINDOW 0 32 32 VTop 2
WINDOW 3 0 32 VBottom 2
SYMATTR InstName C2
SYMATTR Value 22n
SYMBOL Res 448 256 R0
SYMATTR InstName R5
SYMATTR Value 1Meg
TEXT 400 88 Left 2 !.op\n.tran 1u 60.5m 60m
